10
H4ClO4Pa optimized with ADF in AMS.
 Pa       0.21241221827295       0.17803993916150      -0.06049253008541
 O        0.96903928182149       1.39054144876219      -1.61153600746451
 H        1.24174790954578       2.15832023267394      -2.11690343801025
 O       -0.76483533323173       1.33556184933524       0.98551813958374
 H       -0.90721539521042      -2.55655026308650       0.86115322992775
 O       -0.04787862538145      -1.48561268071021      -1.37603609631323
 H        0.18941981333124      -1.80516166942495      -2.25151073906114
 O       -1.09667585130952      -1.67684989650657       1.21138846792995
 H       -1.21364155797701      -1.74577663691004       2.16550017169337
 Cl       2.39196401501839      -0.56395496601189       1.20325417577713
