12

Pa 0.576097232242629 -0.2963472106135479 -0.1923091703639243
O 0.7509302998270484 1.213503484919671 -1.665995457089097
H 0.8690093915761705 2.150502661852508 -1.839345111057082
O 0.4164583400668024 0.7369305082158527 1.325823452880774
H -1.705150238630933 -2.357368685352982 0.7713344436562194
O -0.2688783101507024 -1.662256138242035 -1.586408895759904
H -0.3374682849066076 -1.824045597876253 -2.532806980535361
O -1.177992641305787 -1.634202932365382 1.130665499853842
H -1.501663659231358 -1.405932051595463 2.00972358668893
N 2.668009140517194 -1.286998640369713 0.02285577777540858
C 3.746877319540114 -1.77975074054245 0.1407084619864819
S 5.183851496682015 -2.441753865116052 0.2998322498386846
