10
H4IO4Pa optimized with ADF in AMS.
 Pa       0.28973337238524      -0.14176469072816       0.08322886932861
 I        1.54115534914257       1.99393357313552      -1.67073040285929
 H       -1.94807183994566       1.86117746173834       0.49478046968637
 O       -1.29220939430367       1.16449827994807       0.42956869724105
 H        2.81433136054834       0.08413342280656       1.74925771016402
 O        0.19840393724384      -1.37300356382931      -1.59201649184021
 H        0.20700992592888      -1.82393106145857      -2.43836803724572
 O       -0.56822140507335      -1.59885593750170       1.28345833148571
 H       -1.04541684017017      -2.24562613919217       1.80611022054993
 O        1.98734248633823      -0.05459781606721       1.28405038390215
