10
H4FO4Pa optimized with ADF in AMS.
 Pa      -0.25349923383711       0.56196850807316       0.32927121388829
 O        1.55944419917435       1.19588086423856      -0.57792031797934
 O       -1.28488783312537       2.40483262341160       0.47982772222859
 F       -1.45013242365258      -0.35378605434041      -1.19468964897287
 O       -0.28203720371798      -0.11422075237960       2.06168521762952
 O        0.58865704607107      -1.92640088775183       0.00244868967777
 H        0.05558782693848      -2.38162708792215      -0.66204922377902
 H        0.48073656509568      -2.40309666765232       0.83507262311243
 H        2.33778602808527       1.60686337891883      -0.95672234402220
 H       -1.76340441272306       3.15147397229792       0.84253453845434
