13
H4NO7Pa optimized with ADF in AMS.
 Pa       0.23702825695385       0.28465353362478       0.41163849526741
 O        1.06980636761859       0.72412404621738       2.26570943937453
 H       -2.59894571072515       0.85015159417571       1.35930158769488
 O       -1.70081148270901       0.70323513607936       1.05871454748298
 H        1.32353178612447       0.77013782265293       3.19033051740148
 O       -0.35984281475916       0.08122971859679      -1.56995366948694
 H       -0.77013981084779      -0.13394273753629      -2.41067723304023
 O        0.52350342025377      -1.76728406101643       0.64373163537114
 H        0.60424395960315      -2.72019629318762       0.70771103805909
 O        1.02635501310005       2.53189369879942      -0.26415853391362
 O        2.44521880337277       0.91407045958877      -0.51894874827995
 N        2.20462289521197       2.17343728375797      -0.64311672273000
 O        3.01020933385742       2.94832071817937      -1.07553294510471
